GW 1 1 0.000 0.000 0.000 0.000 0.075 0.000 0.001
GW 2 1 0.000 0.075 0.177 0.000 0.075 0.267 0.001
GW 3 1 0.000 0.075 0.177 0.065 0.113 0.177 0.001
GW 4 1 0.000 0.000 0.177 0.000 0.000 0.267 0.001
GW 5 1 0.000 0.000 0.177 0.000 0.075 0.177 0.001
GW 6 1 1.089 0.112 0.714 1.089 0.122 0.714 0.001
GW 7 1 1.089 0.122 0.714 1.089 0.127 0.705 0.001
GW 8 1 1.089 0.107 0.705 1.089 0.112 0.714 0.001
GW 9 1 1.089 0.127 0.705 1.089 0.122 0.697 0.001
GW 10 1 1.089 0.112 0.697 1.089 0.107 0.705 0.001
GW 11 1 1.089 0.122 0.697 1.089 0.112 0.697 0.001
GW 12 1 0.130 0.000 0.446 0.065 -0.038 0.446 0.001
GW 13 1 0.130 0.050 0.446 0.130 0.000 0.446 0.001
GW 14 1 0.130 0.075 0.446 0.130 0.050 0.446 0.001
GW 15 1 0.130 0.075 0.446 0.065 0.113 0.446 0.001
GW 16 1 0.130 0.000 0.357 0.130 0.000 0.446 0.001
GW 17 1 0.130 0.000 0.357 0.065 -0.038 0.357 0.001
GW 18 1 0.130 0.075 0.357 0.130 0.075 0.446 0.001
GW 19 1 0.130 0.075 0.357 0.130 0.000 0.357 0.001
GW 20 1 0.130 0.075 0.357 0.065 0.113 0.357 0.001
GW 21 1 0.130 0.075 0.267 0.130 0.075 0.357 0.001
GW 22 1 0.130 0.075 0.267 0.130 0.000 0.267 0.001
GW 23 1 0.130 0.075 0.267 0.065 0.113 0.267 0.001
GW 24 1 0.130 0.000 0.267 0.130 0.000 0.357 0.001
GW 25 1 0.130 0.000 0.267 0.065 -0.038 0.267 0.001
GW 26 1 0.130 0.000 0.177 0.130 0.000 0.267 0.001
GW 27 1 0.130 0.000 0.177 0.065 -0.038 0.177 0.001
GW 28 1 0.130 0.075 0.177 0.130 0.075 0.267 0.001
GW 29 1 0.130 0.075 0.177 0.130 0.000 0.177 0.001
GW 30 1 0.130 0.075 0.177 0.065 0.113 0.177 0.001
GW 31 1 0.130 0.075 0.089 0.130 0.075 0.177 0.001
GW 32 1 0.130 0.075 0.089 0.130 0.075 0.000 0.001
GW 33 1 0.130 0.075 0.089 0.130 0.000 0.089 0.001
GW 34 1 0.130 0.075 0.089 0.065 0.113 0.089 0.001
GW 35 1 0.130 0.000 0.089 0.130 0.000 0.177 0.001
GW 36 1 0.130 0.000 0.089 0.130 0.000 0.000 0.001
GW 37 1 0.130 0.000 0.089 0.065 -0.038 0.089 0.001
GW 38 1 0.130 0.000 0.000 0.065 -0.038 0.000 0.001
GW 39 1 0.130 0.075 0.000 0.130 0.000 0.000 0.001
GW 40 1 0.130 0.075 0.000 0.065 0.113 0.000 0.001
GW 41 1 0.143 0.258 0.746 0.045 0.258 0.746 0.001
GW 42 1 0.143 0.166 0.746 0.143 0.050 0.746 0.001
GW 43 1 0.143 0.166 0.746 0.143 0.258 0.746 0.001
GW 44 1 0.143 0.166 0.746 0.045 0.166 0.746 0.001
GW 45 1 0.143 0.050 0.746 0.143 -0.066 0.746 0.001
GW 46 1 0.143 0.050 0.746 0.045 0.050 0.746 0.001
GW 47 1 0.143 -0.066 0.746 0.143 -0.183 0.746 0.001
GW 48 1 0.143 -0.066 0.746 0.045 -0.066 0.746 0.001
GW 49 1 0.143 -0.183 0.746 0.045 -0.183 0.746 0.001
GW 50 1 0.143 0.258 0.446 0.045 0.258 0.446 0.001
GW 51 1 0.143 0.258 0.446 0.143 0.258 0.537 0.001
GW 52 1 0.143 0.166 0.446 0.143 0.050 0.446 0.001
GW 53 1 0.143 0.166 0.446 0.143 0.258 0.446 0.001
GW 54 1 0.143 0.166 0.446 0.045 0.166 0.446 0.001
GW 55 1 0.143 0.258 0.537 0.143 0.258 0.653 0.001
GW 56 1 0.143 0.258 0.537 0.045 0.258 0.537 0.001
GW 57 1 0.143 0.050 0.446 0.143 -0.066 0.446 0.001
GW 58 1 0.143 0.050 0.446 0.130 0.050 0.446 0.001
GW 59 1 0.143 0.258 0.653 0.045 0.258 0.653 0.001
GW 60 1 0.143 0.258 0.653 0.143 0.258 0.746 0.001
GW 61 1 0.143 -0.066 0.446 0.143 -0.183 0.446 0.001
GW 62 1 0.143 -0.066 0.446 0.045 -0.066 0.446 0.001
GW 63 1 0.143 -0.183 0.446 0.045 -0.183 0.446 0.001
GW 64 1 0.143 -0.183 0.537 0.143 -0.183 0.446 0.001
GW 65 1 0.143 -0.183 0.537 0.241 -0.183 0.537 0.001
GW 66 1 0.143 -0.183 0.537 0.143 -0.183 0.653 0.001
GW 67 1 0.143 -0.183 0.653 0.241 -0.183 0.653 0.001
GW 68 1 0.143 -0.183 0.653 0.143 -0.183 0.746 0.001
GW 69 1 -0.152 0.698 0.653 -0.186 0.698 0.653 0.001
GW 70 1 -0.152 -0.183 0.746 -0.185 -0.183 0.746 0.001
GW 71 1 -0.152 -0.183 0.746 -0.152 -0.183 0.653 0.001
GW 72 1 -0.152 -0.066 0.746 -0.152 -0.183 0.746 0.001
GW 73 1 -0.152 -0.066 0.746 -0.152 0.079 0.746 0.001
GW 74 1 -0.152 -0.066 0.746 -0.185 -0.066 0.746 0.001
GW 75 1 -0.152 -0.066 0.746 -0.043 -0.066 0.746 0.001
GW 76 1 -0.152 0.079 0.746 -0.185 0.079 0.746 0.001
GW 77 1 -0.152 0.079 0.746 -0.043 0.050 0.746 0.001
GW 78 1 -0.152 0.149 0.746 -0.152 0.079 0.746 0.001
GW 79 1 -0.152 0.149 0.746 -0.185 0.149 0.746 0.001
GW 80 1 -0.152 0.149 0.746 -0.043 0.166 0.746 0.001
GW 81 1 -0.152 0.265 0.746 -0.152 0.149 0.746 0.001
GW 82 1 -0.152 0.265 0.746 -0.043 0.258 0.746 0.001
GW 83 1 -0.152 0.265 0.746 -0.185 0.265 0.746 0.001
GW 84 1 -0.152 0.382 0.746 -0.152 0.265 0.746 0.001
GW 85 1 -0.152 0.382 0.746 -0.185 0.382 0.746 0.001
GW 86 1 -0.152 0.498 0.746 -0.152 0.382 0.746 0.001
GW 87 1 -0.152 0.498 0.746 -0.185 0.498 0.746 0.001
GW 88 1 -0.152 0.614 0.746 -0.152 0.498 0.746 0.001
GW 89 1 -0.152 0.614 0.746 -0.152 0.698 0.746 0.001
GW 90 1 -0.152 0.614 0.746 -0.185 0.614 0.746 0.001
GW 91 1 -0.152 0.698 0.746 -0.185 0.698 0.746 0.001
GW 92 1 -0.152 0.698 0.746 -0.152 0.698 0.653 0.001
GW 93 1 -0.152 -0.183 0.653 -0.186 -0.183 0.653 0.001
GW 94 1 -0.152 -0.183 0.653 -0.152 -0.183 0.567 0.001
GW 95 1 -0.152 -0.183 0.653 -0.043 -0.183 0.653 0.001
GW 96 1 -0.152 -0.183 0.567 -0.186 -0.183 0.567 0.001
GW 97 1 -0.152 -0.183 0.567 -0.152 -0.183 0.537 0.001
GW 98 1 -0.152 -0.183 0.537 -0.186 -0.183 0.537 0.001
GW 99 1 -0.152 -0.183 0.537 -0.152 -0.183 0.446 0.001
GW 100 1 -0.152 -0.183 0.446 -0.186 -0.183 0.446 0.001
GW 101 1 -0.152 -0.183 0.446 -0.152 -0.183 0.361 0.001
GW 102 1 -0.152 -0.183 0.361 -0.186 -0.183 0.361 0.001
GW 103 1 -0.152 -0.183 0.361 -0.152 -0.183 0.325 0.001
GW 104 1 -0.152 -0.183 0.325 -0.043 -0.183 0.325 0.001
GW 105 1 -0.152 -0.183 0.325 -0.186 -0.183 0.325 0.001
GW 106 1 -0.152 -0.051 0.361 -0.186 -0.051 0.361 0.001
GW 107 1 -0.152 -0.051 0.361 -0.152 -0.183 0.325 0.001
GW 108 1 -0.152 0.050 0.389 -0.043 0.050 0.389 0.001
GW 109 1 -0.152 0.050 0.389 -0.152 -0.051 0.361 0.001
GW 110 1 -0.152 0.166 0.421 -0.186 0.166 0.421 0.001
GW 111 1 -0.152 0.166 0.421 -0.152 0.050 0.389 0.001
GW 112 1 -0.152 0.166 0.421 -0.152 0.258 0.446 0.001
GW 113 1 -0.152 0.374 0.477 -0.043 0.374 0.477 0.001
GW 114 1 -0.152 0.374 0.477 -0.152 0.258 0.446 0.001
GW 115 1 -0.152 0.490 0.509 -0.043 0.490 0.509 0.001
GW 116 1 -0.152 0.490 0.509 -0.152 0.374 0.477 0.001
GW 117 1 -0.152 0.592 0.537 -0.186 0.592 0.537 0.001
GW 118 1 -0.152 0.592 0.537 -0.152 0.490 0.509 0.001
GW 119 1 -0.152 0.698 0.566 -0.186 0.698 0.566 0.001
GW 120 1 -0.152 0.698 0.566 -0.043 0.698 0.566 0.001
GW 121 1 -0.152 0.698 0.566 -0.152 0.592 0.537 0.001
GW 122 1 -0.152 0.698 0.566 -0.152 0.698 0.653 0.001
GW 123 1 -0.185 0.079 0.611 -0.185 0.149 0.611 0.001
GW 124 1 -0.185 0.079 0.611 -0.212 0.079 0.611 0.001
GW 125 1 -0.185 0.079 0.611 -0.186 0.079 0.653 0.001
GW 126 1 -0.185 0.149 0.611 -0.186 0.149 0.653 0.001
GW 127 1 -0.185 -0.183 0.746 -0.186 -0.183 0.653 0.001
GW 128 1 -0.185 -0.066 0.746 -0.185 -0.183 0.746 0.001
GW 129 1 -0.185 -0.066 0.746 -0.185 0.079 0.746 0.001
GW 130 1 -0.185 0.149 0.746 -0.185 0.079 0.746 0.001
GW 131 1 -0.185 0.265 0.746 -0.185 0.149 0.746 0.001
GW 132 1 -0.185 0.382 0.746 -0.185 0.265 0.746 0.001
GW 133 1 -0.185 0.498 0.746 -0.185 0.382 0.746 0.001
GW 134 1 -0.185 0.614 0.746 -0.185 0.498 0.746 0.001
GW 135 1 -0.185 0.614 0.746 -0.185 0.698 0.746 0.001
GW 136 1 -0.185 0.698 0.746 -0.186 0.698 0.566 0.001
GW 137 1 -0.186 -0.183 0.325 -0.186 -0.051 0.361 0.001
GW 138 1 -0.186 -0.183 0.325 -0.186 -0.183 0.361 0.001
GW 139 1 -0.186 -0.051 0.361 -0.186 0.050 0.389 0.001
GW 140 1 -0.186 -0.183 0.361 -0.186 -0.183 0.446 0.001
GW 141 1 -0.186 -0.066 0.361 -0.186 -0.183 0.361 0.001
GW 142 1 -0.186 -0.051 0.361 -0.186 -0.066 0.361 0.001
GW 143 1 -0.186 0.050 0.389 -0.186 0.166 0.421 0.001
GW 144 1 -0.186 0.050 0.389 -0.152 0.050 0.389 0.001
GW 145 1 -0.186 0.166 0.421 -0.186 0.258 0.446 0.001
GW 146 1 -0.186 -0.183 0.567 -0.186 -0.183 0.653 0.001
GW 147 1 -0.186 -0.183 0.537 -0.186 -0.183 0.567 0.001
GW 148 1 -0.186 -0.183 0.537 -0.186 -0.183 0.446 0.001
GW 149 1 -0.186 -0.066 0.653 -0.186 -0.183 0.653 0.001
GW 150 1 -0.186 -0.066 0.653 -0.185 -0.066 0.746 0.001
GW 151 1 -0.186 -0.183 0.537 -0.186 -0.066 0.537 0.001
GW 152 1 -0.186 -0.066 0.653 -0.186 -0.066 0.567 0.001
GW 153 1 -0.186 0.050 0.653 -0.186 -0.066 0.653 0.001
GW 154 1 -0.186 0.050 0.653 -0.185 0.079 0.746 0.001
GW 155 1 -0.186 -0.066 0.537 -0.186 0.050 0.537 0.001
GW 156 1 -0.186 0.050 0.653 -0.186 0.050 0.567 0.001
GW 157 1 -0.186 0.079 0.653 -0.186 0.050 0.653 0.001
GW 158 1 -0.186 0.079 0.653 -0.185 0.079 0.746 0.001
GW 159 1 -0.186 -0.066 0.446 -0.186 -0.183 0.446 0.001
GW 160 1 -0.186 -0.066 0.446 -0.186 -0.066 0.361 0.001
GW 161 1 -0.186 -0.066 0.446 -0.186 -0.066 0.537 0.001
GW 162 1 -0.186 0.149 0.653 -0.186 0.079 0.653 0.001
GW 163 1 -0.186 0.149 0.653 -0.185 0.149 0.746 0.001
GW 164 1 -0.186 0.166 0.653 -0.186 0.149 0.653 0.001
GW 165 1 -0.186 0.166 0.653 -0.186 0.258 0.653 0.001
GW 166 1 -0.186 0.050 0.537 -0.186 0.050 0.567 0.001
GW 167 1 -0.186 0.166 0.653 -0.185 0.149 0.746 0.001
GW 168 1 -0.186 0.166 0.566 -0.186 0.166 0.653 0.001
GW 169 1 -0.186 0.050 0.446 -0.186 -0.066 0.446 0.001
GW 170 1 -0.186 0.050 0.446 -0.186 0.050 0.389 0.001
GW 171 1 -0.186 0.050 0.446 -0.186 0.050 0.537 0.001
GW 172 1 -0.186 0.258 0.653 -0.185 0.265 0.746 0.001
GW 173 1 -0.186 0.166 0.537 -0.186 0.050 0.537 0.001
GW 174 1 -0.186 0.166 0.537 -0.186 0.258 0.537 0.001
GW 175 1 -0.186 0.166 0.537 -0.186 0.166 0.446 0.001
GW 176 1 -0.186 0.166 0.537 -0.186 0.166 0.566 0.001
GW 177 1 -0.186 0.258 0.566 -0.186 0.258 0.653 0.001
GW 178 1 -0.186 0.166 0.446 -0.186 0.050 0.446 0.001
GW 179 1 -0.186 0.374 0.653 -0.186 0.258 0.653 0.001
GW 180 1 -0.186 0.166 0.446 -0.186 0.166 0.421 0.001
GW 181 1 -0.186 0.258 0.537 -0.186 0.258 0.566 0.001
GW 182 1 -0.186 0.374 0.653 -0.185 0.382 0.746 0.001
GW 183 1 -0.186 0.166 0.446 -0.186 0.258 0.446 0.001
GW 184 1 -0.186 0.374 0.566 -0.186 0.374 0.653 0.001
GW 185 1 -0.186 0.258 0.446 -0.186 0.374 0.477 0.001
GW 186 1 -0.186 0.258 0.446 -0.152 0.258 0.446 0.001
GW 187 1 -0.186 0.258 0.446 -0.186 0.258 0.537 0.001
GW 188 1 -0.186 0.374 0.537 -0.186 0.258 0.537 0.001
GW 189 1 -0.186 0.490 0.653 -0.186 0.374 0.653 0.001
GW 190 1 -0.186 0.374 0.537 -0.186 0.374 0.477 0.001
GW 191 1 -0.186 0.374 0.537 -0.186 0.374 0.566 0.001
GW 192 1 -0.186 0.490 0.653 -0.185 0.498 0.746 0.001
GW 193 1 -0.186 0.490 0.566 -0.186 0.490 0.653 0.001
GW 194 1 -0.186 0.490 0.537 -0.186 0.374 0.537 0.001
GW 195 1 -0.186 0.606 0.653 -0.186 0.490 0.653 0.001
GW 196 1 -0.186 0.606 0.653 -0.186 0.698 0.653 0.001
GW 197 1 -0.186 0.490 0.537 -0.186 0.490 0.509 0.001
GW 198 1 -0.186 0.490 0.537 -0.186 0.490 0.566 0.001
GW 199 1 -0.186 0.606 0.653 -0.185 0.614 0.746 0.001
GW 200 1 -0.186 0.606 0.566 -0.186 0.606 0.653 0.001
GW 201 1 -0.186 0.592 0.537 -0.186 0.490 0.537 0.001
GW 202 1 -0.186 0.374 0.477 -0.186 0.490 0.509 0.001
GW 203 1 -0.186 0.374 0.477 -0.152 0.374 0.477 0.001
GW 204 1 -0.186 0.490 0.509 -0.186 0.592 0.537 0.001
GW 205 1 -0.186 0.490 0.509 -0.152 0.490 0.509 0.001
GW 206 1 -0.186 0.592 0.537 -0.186 0.606 0.541 0.001
GW 207 1 -0.186 0.606 0.541 -0.186 0.698 0.566 0.001
GW 208 1 -0.186 0.606 0.541 -0.186 0.606 0.566 0.001
GW 209 1 -0.186 0.050 0.567 -0.186 0.166 0.566 0.001
GW 210 1 -0.186 0.050 0.567 -0.186 -0.066 0.567 0.001
GW 211 1 -0.186 0.606 0.566 -0.186 0.698 0.566 0.001
GW 212 1 -0.186 0.490 0.566 -0.186 0.606 0.566 0.001
GW 213 1 -0.186 0.374 0.566 -0.186 0.490 0.566 0.001
GW 214 1 -0.186 0.258 0.566 -0.186 0.374 0.566 0.001
GW 215 1 -0.186 0.166 0.566 -0.186 0.258 0.566 0.001
GW 216 1 -0.186 -0.066 0.567 -0.186 -0.066 0.537 0.001
GW 217 1 -0.186 0.166 0.567 -0.186 0.258 0.567 0.001
GW 218 1 0.000 0.075 0.267 0.000 0.075 0.357 0.001
GW 219 1 0.000 0.075 0.267 0.065 0.113 0.267 0.001
GW 220 1 0.000 0.000 0.267 0.000 0.000 0.357 0.001
GW 221 1 0.000 0.000 0.267 0.000 0.075 0.267 0.001
GW 222 1 -0.212 0.079 0.611 -0.311 0.079 0.611 0.001
GW 223 1 -0.212 0.149 0.611 -0.311 0.149 0.611 0.001
GW 224 1 -0.212 0.149 0.611 -0.185 0.149 0.611 0.001
GW 225 1 -0.212 0.079 0.653 -0.212 0.079 0.746 0.001
GW 226 1 -0.212 0.079 0.653 -0.212 0.079 0.611 0.001
GW 227 1 -0.212 0.079 0.653 -0.186 0.079 0.653 0.001
GW 228 1 -0.212 0.149 0.653 -0.212 0.149 0.746 0.001
GW 229 1 -0.212 0.149 0.653 -0.212 0.149 0.611 0.001
GW 230 1 -0.212 0.149 0.653 -0.186 0.149 0.653 0.001
GW 231 1 -0.212 0.079 0.746 -0.311 0.079 0.746 0.001
GW 232 1 -0.212 0.079 0.746 -0.212 0.149 0.746 0.001
GW 233 1 -0.212 0.079 0.746 -0.185 0.079 0.746 0.001
GW 234 1 -0.212 0.149 0.746 -0.311 0.149 0.746 0.001
GW 235 1 -0.212 0.149 0.746 -0.185 0.149 0.746 0.001
GW 236 1 0.241 0.258 0.746 0.143 0.258 0.746 0.001
GW 237 1 0.241 0.166 0.746 0.241 0.050 0.746 0.001
GW 238 1 0.241 0.166 0.746 0.241 0.258 0.746 0.001
GW 239 1 0.241 0.166 0.746 0.143 0.166 0.746 0.001
GW 240 1 0.241 0.050 0.746 0.241 -0.066 0.746 0.001
GW 241 1 0.241 0.050 0.746 0.143 0.050 0.746 0.001
GW 242 1 0.241 -0.066 0.746 0.241 -0.183 0.746 0.001
GW 243 1 0.241 -0.066 0.746 0.143 -0.066 0.746 0.001
GW 244 1 0.241 -0.183 0.746 0.143 -0.183 0.746 0.001
GW 245 1 0.241 0.258 0.446 0.143 0.258 0.446 0.001
GW 246 1 0.241 0.258 0.446 0.241 0.258 0.537 0.001
GW 247 1 0.241 0.166 0.446 0.241 0.050 0.446 0.001
GW 248 1 0.241 0.166 0.446 0.241 0.258 0.446 0.001
GW 249 1 0.241 0.166 0.446 0.143 0.166 0.446 0.001
GW 250 1 0.241 0.258 0.537 0.241 0.258 0.653 0.001
GW 251 1 0.241 0.258 0.537 0.143 0.258 0.537 0.001
GW 252 1 0.241 0.050 0.446 0.241 -0.066 0.446 0.001
GW 253 1 0.241 0.050 0.446 0.143 0.050 0.446 0.001
GW 254 1 0.241 0.258 0.653 0.143 0.258 0.653 0.001
GW 255 1 0.241 0.258 0.653 0.241 0.258 0.746 0.001
GW 256 1 0.241 -0.066 0.446 0.241 -0.183 0.446 0.001
GW 257 1 0.241 -0.066 0.446 0.143 -0.066 0.446 0.001
GW 258 1 0.241 -0.183 0.446 0.143 -0.183 0.446 0.001
GW 259 1 0.241 -0.183 0.537 0.241 -0.183 0.446 0.001
GW 260 1 0.241 -0.183 0.653 0.241 -0.183 0.537 0.001
GW 261 1 0.241 -0.183 0.653 0.339 -0.183 0.653 0.001
GW 262 1 0.241 -0.183 0.653 0.241 -0.183 0.746 0.001
GW 263 1 0.000 0.075 0.357 0.000 0.075 0.446 0.001
GW 264 1 0.000 0.075 0.357 0.065 0.113 0.357 0.001
GW 265 1 0.000 0.000 0.357 0.000 0.000 0.446 0.001
GW 266 1 0.000 0.000 0.357 0.000 0.075 0.357 0.001
GW 267 1 -0.311 0.079 0.611 -0.409 0.079 0.611 0.001
GW 268 1 -0.311 0.149 0.611 -0.409 0.149 0.611 0.001
GW 269 1 -0.311 0.079 0.653 -0.311 0.079 0.746 0.001
GW 270 1 -0.311 0.079 0.653 -0.212 0.079 0.653 0.001
GW 271 1 -0.311 0.079 0.653 -0.311 0.079 0.611 0.001
GW 272 1 -0.311 0.149 0.653 -0.311 0.149 0.746 0.001
GW 273 1 -0.311 0.149 0.653 -0.212 0.149 0.653 0.001
GW 274 1 -0.311 0.149 0.653 -0.311 0.149 0.611 0.001
GW 275 1 -0.311 0.079 0.746 -0.311 0.149 0.746 0.001
GW 276 1 0.339 0.258 0.746 0.241 0.258 0.746 0.001
GW 277 1 0.339 0.166 0.746 0.339 0.117 0.746 0.001
GW 278 1 0.339 0.166 0.746 0.339 0.258 0.746 0.001
GW 279 1 0.339 0.166 0.746 0.241 0.166 0.746 0.001
GW 280 1 0.339 0.166 0.746 0.339 0.166 0.705 0.001
GW 281 1 0.339 0.117 0.746 0.339 0.050 0.746 0.001
GW 282 1 0.339 0.050 0.746 0.339 -0.066 0.746 0.001
GW 283 1 0.339 0.050 0.746 0.241 0.050 0.746 0.001
GW 284 1 0.339 0.050 0.746 0.339 0.050 0.705 0.001
GW 285 1 0.339 -0.066 0.746 0.339 -0.183 0.746 0.001
GW 286 1 0.339 -0.066 0.746 0.241 -0.066 0.746 0.001
GW 287 1 0.339 -0.066 0.746 0.339 -0.066 0.653 0.001
GW 288 1 0.339 -0.183 0.746 0.241 -0.183 0.746 0.001
GW 289 1 0.339 0.050 0.705 0.339 0.050 0.653 0.001
GW 290 1 0.339 0.112 0.714 0.468 0.112 0.714 0.001
GW 291 1 0.339 0.112 0.714 0.339 0.117 0.714 0.001
GW 292 1 0.339 0.122 0.714 0.468 0.122 0.714 0.001
GW 293 1 0.339 0.117 0.714 0.339 0.117 0.746 0.001
GW 294 1 0.339 0.117 0.714 0.339 0.122 0.714 0.001
GW 295 1 0.339 0.122 0.714 0.339 0.127 0.705 0.001
GW 296 1 0.339 0.107 0.705 0.468 0.107 0.705 0.001
GW 297 1 0.339 0.107 0.705 0.339 0.112 0.714 0.001
GW 298 1 0.339 0.107 0.705 0.339 0.050 0.705 0.001
GW 299 1 0.339 0.127 0.705 0.468 0.127 0.705 0.001
GW 300 1 0.339 0.127 0.705 0.339 0.166 0.705 0.001
GW 301 1 0.339 0.127 0.705 0.339 0.122 0.697 0.001
GW 302 1 0.339 0.112 0.697 0.468 0.112 0.697 0.001
GW 303 1 0.339 0.112 0.697 0.339 0.107 0.705 0.001
GW 304 1 0.339 0.122 0.697 0.468 0.122 0.697 0.001
GW 305 1 0.339 0.118 0.697 0.339 0.118 0.653 0.001
GW 306 1 0.339 0.118 0.697 0.339 0.112 0.697 0.001
GW 307 1 0.339 0.122 0.697 0.339 0.118 0.697 0.001
GW 308 1 0.339 0.050 0.537 0.339 -0.066 0.537 0.001
GW 309 1 0.339 0.050 0.537 0.339 0.050 0.653 0.001
GW 310 1 0.339 0.050 0.653 0.339 -0.066 0.653 0.001
GW 311 1 0.339 0.166 0.705 0.339 0.166 0.653 0.001
GW 312 1 0.339 0.118 0.653 0.339 0.050 0.653 0.001
GW 313 1 0.339 -0.066 0.537 0.339 -0.183 0.537 0.001
GW 314 1 0.339 -0.066 0.537 0.339 -0.066 0.653 0.001
GW 315 1 0.339 -0.066 0.653 0.339 -0.183 0.653 0.001
GW 316 1 0.339 0.166 0.537 0.339 0.050 0.537 0.001
GW 317 1 0.339 0.166 0.537 0.339 0.166 0.653 0.001
GW 318 1 0.339 0.166 0.537 0.339 0.166 0.446 0.001
GW 319 1 0.339 0.166 0.653 0.339 0.118 0.653 0.001
GW 320 1 0.339 0.258 0.446 0.241 0.258 0.446 0.001
GW 321 1 0.339 0.258 0.446 0.339 0.258 0.537 0.001
GW 322 1 0.339 0.166 0.446 0.339 0.050 0.446 0.001
GW 323 1 0.339 0.166 0.446 0.241 0.166 0.446 0.001
GW 324 1 0.339 0.166 0.446 0.339 0.258 0.446 0.001
GW 325 1 0.339 0.258 0.537 0.339 0.258 0.653 0.001
GW 326 1 0.339 0.258 0.537 0.241 0.258 0.537 0.001
GW 327 1 0.339 0.258 0.537 0.339 0.166 0.537 0.001
GW 328 1 0.339 0.050 0.446 0.339 -0.066 0.446 0.001
GW 329 1 0.339 0.050 0.446 0.241 0.050 0.446 0.001
GW 330 1 0.339 0.258 0.653 0.241 0.258 0.653 0.001
GW 331 1 0.339 0.258 0.653 0.339 0.258 0.746 0.001
GW 332 1 0.339 0.258 0.653 0.339 0.166 0.653 0.001
GW 333 1 0.339 0.050 0.446 0.339 0.050 0.537 0.001
GW 334 1 0.339 -0.066 0.446 0.339 -0.183 0.446 0.001
GW 335 1 0.339 -0.066 0.446 0.241 -0.066 0.446 0.001
GW 336 1 0.339 -0.066 0.446 0.339 -0.066 0.537 0.001
GW 337 1 0.339 -0.183 0.446 0.241 -0.183 0.446 0.001
GW 338 1 0.339 -0.183 0.537 0.339 -0.183 0.446 0.001
GW 339 1 0.339 -0.183 0.537 0.339 -0.183 0.653 0.001
GW 340 1 0.339 -0.183 0.537 0.241 -0.183 0.537 0.001
GW 341 1 0.339 -0.183 0.653 0.339 -0.183 0.746 0.001
GW 342 1 0.000 0.075 0.446 0.065 0.113 0.446 0.001
GW 343 1 0.000 0.050 0.446 -0.043 0.050 0.446 0.001
GW 344 1 0.000 0.050 0.446 0.000 0.075 0.446 0.001
GW 345 1 0.000 0.000 0.446 0.000 0.050 0.446 0.001
GW 346 1 -0.409 0.079 0.611 -0.507 0.079 0.611 0.001
GW 347 1 -0.409 0.149 0.611 -0.507 0.149 0.611 0.001
GW 348 1 -0.409 0.079 0.653 -0.409 0.079 0.746 0.001
GW 349 1 -0.409 0.079 0.653 -0.311 0.079 0.653 0.001
GW 350 1 -0.409 0.079 0.653 -0.409 0.079 0.611 0.001
GW 351 1 -0.409 0.149 0.653 -0.409 0.149 0.746 0.001
GW 352 1 -0.409 0.149 0.653 -0.311 0.149 0.653 0.001
GW 353 1 -0.409 0.149 0.653 -0.409 0.149 0.611 0.001
GW 354 1 -0.409 0.079 0.746 -0.507 0.079 0.746 0.001
GW 355 1 -0.409 0.079 0.746 -0.311 0.079 0.746 0.001
GW 356 1 -0.409 0.079 0.746 -0.409 0.149 0.746 0.001
GW 357 1 -0.409 0.149 0.746 -0.507 0.149 0.746 0.001
GW 358 1 -0.409 0.149 0.746 -0.311 0.149 0.746 0.001
GW 359 1 -0.043 -0.183 0.325 -0.043 -0.183 0.361 0.001
GW 360 1 -0.043 -0.051 0.361 -0.043 -0.183 0.325 0.001
GW 361 1 -0.043 -0.051 0.361 -0.043 -0.183 0.325 0.001
GW 362 1 -0.043 -0.183 0.361 -0.043 -0.183 0.446 0.001
GW 363 1 -0.043 -0.183 0.361 -0.152 -0.183 0.361 0.001
GW 364 1 -0.043 -0.066 0.361 -0.043 -0.183 0.361 0.001
GW 365 1 -0.043 -0.051 0.361 -0.043 -0.066 0.361 0.001
GW 366 1 -0.043 -0.051 0.361 -0.152 -0.051 0.361 0.001
GW 367 1 -0.043 0.050 0.389 -0.043 -0.051 0.361 0.001
GW 368 1 -0.043 0.166 0.421 -0.152 0.166 0.421 0.001
GW 369 1 -0.043 0.166 0.421 -0.043 -0.051 0.361 0.001
GW 370 1 -0.043 -0.183 0.653 0.045 -0.183 0.653 0.001
GW 371 1 -0.043 -0.183 0.653 -0.043 -0.183 0.746 0.001
GW 372 1 -0.043 -0.183 0.567 -0.043 -0.183 0.653 0.001
GW 373 1 -0.043 -0.183 0.537 -0.043 -0.183 0.567 0.001
GW 374 1 -0.043 -0.183 0.537 -0.043 -0.183 0.446 0.001
GW 375 1 -0.043 -0.183 0.537 -0.152 -0.183 0.537 0.001
GW 376 1 -0.043 -0.183 0.446 0.045 -0.183 0.446 0.001
GW 377 1 -0.043 -0.183 0.446 -0.152 -0.183 0.446 0.001
GW 378 1 -0.043 -0.066 0.446 -0.043 -0.183 0.446 0.001
GW 379 1 -0.043 -0.066 0.446 -0.043 -0.066 0.361 0.001
GW 380 1 -0.043 0.050 0.446 -0.043 -0.066 0.446 0.001
GW 381 1 -0.043 0.258 0.653 -0.043 0.258 0.746 0.001
GW 382 1 -0.043 0.050 0.446 -0.043 0.050 0.389 0.001
GW 383 1 -0.043 0.166 0.446 -0.043 0.050 0.446 0.001
GW 384 1 -0.043 0.166 0.446 -0.043 0.258 0.446 0.001
GW 385 1 -0.043 0.258 0.537 -0.043 0.258 0.653 0.001
GW 386 1 -0.043 0.374 0.653 -0.043 0.258 0.653 0.001
GW 387 1 -0.043 0.166 0.446 -0.043 0.166 0.421 0.001
GW 388 1 -0.043 0.374 0.537 -0.043 0.258 0.537 0.001
GW 389 1 -0.043 0.490 0.537 -0.043 0.374 0.537 0.001
GW 390 1 -0.043 0.606 0.653 -0.043 0.490 0.653 0.001
GW 391 1 -0.043 0.606 0.653 -0.043 0.698 0.653 0.001
GW 392 1 -0.043 0.698 0.653 -0.152 0.698 0.653 0.001
GW 393 1 -0.043 0.258 0.446 -0.043 0.166 0.421 0.001
GW 394 1 -0.043 0.258 0.446 -0.043 0.258 0.537 0.001
GW 395 1 -0.043 0.258 0.446 -0.152 0.258 0.446 0.001
GW 396 1 -0.043 0.258 0.446 -0.043 0.050 0.389 0.001
GW 397 1 -0.043 0.698 0.566 -0.043 0.258 0.446 0.001
GW 398 1 -0.043 -0.183 0.567 -0.152 -0.183 0.567 0.001
GW 399 1 -0.043 -0.183 0.746 0.045 -0.183 0.746 0.001
GW 400 1 -0.043 -0.183 0.746 -0.152 -0.183 0.746 0.001
GW 401 1 -0.043 -0.066 0.746 -0.043 -0.183 0.746 0.001
GW 402 1 -0.043 0.050 0.746 -0.043 -0.066 0.746 0.001
GW 403 1 -0.043 0.166 0.746 -0.043 0.050 0.746 0.001
GW 404 1 -0.043 0.166 0.746 -0.043 0.258 0.746 0.001
GW 405 1 -0.043 0.382 0.746 -0.043 0.258 0.746 0.001
GW 406 1 -0.043 0.382 0.746 -0.152 0.382 0.746 0.001
GW 407 1 -0.043 0.498 0.746 -0.043 0.382 0.746 0.001
GW 408 1 -0.043 0.498 0.746 -0.152 0.498 0.746 0.001
GW 409 1 -0.043 0.614 0.746 -0.043 0.498 0.746 0.001
GW 410 1 -0.043 0.614 0.746 -0.043 0.698 0.746 0.001
GW 411 1 -0.043 0.614 0.746 -0.152 0.614 0.746 0.001
GW 412 1 -0.043 0.698 0.746 -0.043 0.698 0.566 0.001
GW 413 1 -0.043 0.374 0.653 -0.043 0.382 0.746 0.001
GW 414 1 -0.043 0.374 0.566 -0.043 0.374 0.653 0.001
GW 415 1 -0.043 0.374 0.537 -0.043 0.374 0.477 0.001
GW 416 1 -0.043 0.374 0.537 -0.043 0.374 0.566 0.001
GW 417 1 -0.043 0.490 0.653 -0.043 0.498 0.746 0.001
GW 418 1 -0.043 0.490 0.653 -0.043 0.374 0.653 0.001
GW 419 1 -0.043 0.490 0.566 -0.043 0.490 0.653 0.001
GW 420 1 -0.043 0.490 0.537 -0.043 0.490 0.509 0.001
GW 421 1 -0.043 0.490 0.537 -0.043 0.490 0.566 0.001
GW 422 1 -0.043 0.606 0.653 -0.043 0.614 0.746 0.001
GW 423 1 -0.043 0.606 0.566 -0.043 0.606 0.653 0.001
GW 424 1 -0.043 0.592 0.537 -0.043 0.490 0.537 0.001
GW 425 1 -0.043 0.592 0.537 -0.152 0.592 0.537 0.001
GW 426 1 -0.043 0.606 0.541 -0.043 0.606 0.566 0.001
GW 427 1 -0.043 0.606 0.566 -0.043 0.698 0.566 0.001
GW 428 1 -0.043 0.490 0.566 -0.043 0.606 0.566 0.001
GW 429 1 -0.043 0.490 0.566 -0.043 0.374 0.566 0.001
GW 430 1 -0.043 0.374 0.566 -0.043 0.258 0.567 0.001
GW 431 1 0.045 0.258 0.746 -0.043 0.258 0.746 0.001
GW 432 1 0.045 0.166 0.746 0.045 0.050 0.746 0.001
GW 433 1 0.045 0.166 0.746 0.045 0.258 0.746 0.001
GW 434 1 0.045 0.166 0.746 -0.043 0.166 0.746 0.001
GW 435 1 0.045 0.050 0.746 0.045 -0.066 0.746 0.001
GW 436 1 0.045 0.050 0.746 -0.043 0.050 0.746 0.001
GW 437 1 0.045 -0.066 0.746 0.045 -0.183 0.746 0.001
GW 438 1 0.045 -0.066 0.746 -0.043 -0.066 0.746 0.001
GW 439 1 0.045 0.258 0.446 -0.043 0.258 0.446 0.001
GW 440 1 0.045 0.258 0.446 0.045 0.258 0.537 0.001
GW 441 1 0.045 0.166 0.446 0.045 0.258 0.446 0.001
GW 442 1 0.045 0.166 0.446 -0.043 0.166 0.446 0.001
GW 443 1 0.045 0.258 0.537 -0.043 0.258 0.537 0.001
GW 444 1 0.045 0.166 0.446 0.065 0.113 0.446 0.001
GW 445 1 0.045 0.258 0.653 0.045 0.258 0.537 0.001
GW 446 1 0.045 0.258 0.653 -0.043 0.258 0.653 0.001
GW 447 1 0.045 0.258 0.653 0.045 0.258 0.746 0.001
GW 448 1 0.045 -0.066 0.446 -0.043 -0.066 0.446 0.001
GW 449 1 0.045 -0.183 0.446 0.045 -0.066 0.446 0.001
GW 450 1 0.045 -0.183 0.537 0.045 -0.183 0.446 0.001
GW 451 1 0.045 -0.183 0.537 -0.043 -0.183 0.537 0.001
GW 452 1 0.045 -0.183 0.537 0.143 -0.183 0.537 0.001
GW 453 1 0.045 -0.183 0.653 0.045 -0.183 0.537 0.001
GW 454 1 0.045 -0.183 0.653 0.143 -0.183 0.653 0.001
GW 455 1 0.045 -0.183 0.653 0.045 -0.183 0.746 0.001
GW 456 1 0.468 0.112 0.714 0.589 0.112 0.714 0.001
GW 457 1 0.468 0.112 0.714 0.468 0.122 0.714 0.001
GW 458 1 0.468 0.122 0.714 0.589 0.122 0.714 0.001
GW 459 1 0.468 0.122 0.714 0.468 0.127 0.705 0.001
GW 460 1 0.468 0.107 0.705 0.468 0.112 0.714 0.001
GW 461 1 0.468 0.107 0.705 0.589 0.107 0.705 0.001
GW 462 1 0.468 0.127 0.705 0.589 0.127 0.705 0.001
GW 463 1 0.468 0.127 0.705 0.468 0.122 0.697 0.001
GW 464 1 0.468 0.112 0.697 0.589 0.112 0.697 0.001
GW 465 1 0.468 0.112 0.697 0.468 0.107 0.705 0.001
GW 466 1 0.468 0.122 0.697 0.589 0.122 0.697 0.001
GW 467 1 0.468 0.122 0.697 0.468 0.112 0.697 0.001
GW 468 1 -0.507 0.079 0.611 -0.594 0.079 0.611 0.001
GW 469 1 -0.507 0.149 0.611 -0.594 0.149 0.611 0.001
GW 470 1 -0.507 0.079 0.653 -0.594 0.079 0.653 0.001
GW 471 1 -0.507 0.079 0.653 -0.507 0.079 0.746 0.001
GW 472 1 -0.507 0.079 0.653 -0.409 0.079 0.653 0.001
GW 473 1 -0.507 0.079 0.653 -0.507 0.079 0.611 0.001
GW 474 1 -0.507 0.149 0.653 -0.594 0.149 0.653 0.001
GW 475 1 -0.507 0.149 0.653 -0.507 0.149 0.746 0.001
GW 476 1 -0.507 0.149 0.653 -0.409 0.149 0.653 0.001
GW 477 1 -0.507 0.149 0.653 -0.507 0.149 0.611 0.001
GW 478 1 -0.507 0.079 0.746 -0.594 0.079 0.746 0.001
GW 479 1 -0.507 0.079 0.746 -0.507 0.149 0.746 0.001
GW 480 1 -0.507 0.149 0.746 -0.594 0.149 0.746 0.001
GW 481 1 -0.054 0.698 0.746 -0.152 0.698 0.746 0.001
GW 482 1 -0.054 0.698 0.746 -0.043 0.698 0.746 0.001
GW 483 1 0.589 0.112 0.714 0.718 0.112 0.714 0.001
GW 484 1 0.589 0.112 0.714 0.589 0.122 0.714 0.001
GW 485 1 0.589 0.122 0.714 0.718 0.122 0.714 0.001
GW 486 1 0.589 0.122 0.714 0.589 0.127 0.705 0.001
GW 487 1 0.589 0.107 0.705 0.589 0.112 0.714 0.001
GW 488 1 0.589 0.107 0.705 0.718 0.107 0.705 0.001
GW 489 1 0.589 0.127 0.705 0.718 0.127 0.705 0.001
GW 490 1 0.589 0.127 0.705 0.589 0.122 0.697 0.001
GW 491 1 0.589 0.112 0.697 0.718 0.112 0.697 0.001
GW 492 1 0.589 0.112 0.697 0.589 0.107 0.705 0.001
GW 493 1 0.589 0.122 0.697 0.718 0.122 0.697 0.001
GW 494 1 0.589 0.122 0.697 0.589 0.112 0.697 0.001
GW 495 1 -0.594 0.079 0.611 -0.703 0.079 0.611 0.001
GW 496 1 -0.594 0.149 0.611 -0.703 0.149 0.611 0.001
GW 497 1 -0.594 0.079 0.653 -0.703 0.079 0.653 0.001
GW 498 1 -0.594 0.079 0.653 -0.594 0.079 0.611 0.001
GW 499 1 -0.594 0.149 0.653 -0.703 0.149 0.653 0.001
GW 500 1 -0.594 0.149 0.653 -0.594 0.149 0.611 0.001
GW 501 1 -0.594 0.079 0.746 -0.594 0.079 0.653 0.001
GW 502 1 -0.594 0.079 0.746 -0.594 0.149 0.746 0.001
GW 503 1 -0.594 0.149 0.746 -0.594 0.149 0.653 0.001
GW 504 1 0.065 -0.038 0.446 0.000 0.000 0.446 0.001
GW 505 1 0.065 -0.038 0.446 0.045 -0.066 0.446 0.001
GW 506 1 0.065 0.113 0.357 0.065 0.113 0.446 0.001
GW 507 1 0.065 -0.038 0.357 0.065 -0.038 0.446 0.001
GW 508 1 0.065 -0.038 0.357 0.000 0.000 0.357 0.001
GW 509 1 0.065 0.113 0.267 0.065 0.113 0.357 0.001
GW 510 1 0.065 -0.038 0.267 0.065 -0.038 0.357 0.001
GW 511 1 0.065 -0.038 0.267 0.000 0.000 0.267 0.001
GW 512 1 0.065 0.113 0.177 0.065 0.113 0.267 0.001
GW 513 1 0.065 -0.038 0.177 0.065 -0.038 0.267 0.001
GW 514 1 0.065 -0.038 0.177 0.000 0.000 0.177 0.001
GW 515 1 0.065 0.113 0.089 0.065 0.113 0.177 0.001
GW 516 1 0.065 0.113 0.089 0.065 0.113 0.000 0.001
GW 517 1 0.065 -0.038 0.089 0.065 -0.038 0.177 0.001
GW 518 1 0.065 -0.038 0.089 0.065 -0.038 0.000 0.001
GW 519 1 0.065 -0.038 0.089 0.000 0.000 0.089 0.001
GW 520 1 0.065 -0.038 0.000 0.000 0.000 0.000 0.001
GW 521 1 -0.703 0.079 0.611 -0.703 0.149 0.611 0.001
GW 522 1 -0.703 0.079 0.653 -0.703 0.079 0.611 0.001
GW 523 1 -0.703 0.149 0.653 -0.703 0.149 0.611 0.001
GW 524 1 -0.703 0.079 0.746 -0.703 0.079 0.653 0.001
GW 525 1 -0.703 0.079 0.746 -0.594 0.079 0.746 0.001
GW 526 1 -0.703 0.149 0.746 -0.703 0.079 0.746 0.001
GW 527 1 -0.703 0.149 0.746 -0.703 0.149 0.653 0.001
GW 528 1 -0.703 0.149 0.746 -0.594 0.149 0.746 0.001
GW 529 1 -0.703 0.079 0.653 -0.703 0.149 0.653 0.001
GW 530 1 -0.708 0.054 0.559 -0.708 0.044 0.559 0.001
GW 531 1 -0.708 0.044 0.559 -0.716 0.039 0.559 0.001
GW 532 1 -0.708 0.054 0.559 -0.708 0.054 0.688 0.001
GW 533 1 -0.708 0.044 0.559 -0.708 0.044 0.688 0.001
GW 534 1 -0.708 0.194 0.559 -0.708 0.184 0.559 0.001
GW 535 1 -0.708 0.184 0.559 -0.716 0.179 0.559 0.001
GW 536 1 -0.708 0.194 0.559 -0.708 0.194 0.688 0.001
GW 537 1 -0.708 0.184 0.559 -0.708 0.184 0.688 0.001
GW 538 1 -0.708 0.044 0.688 -0.716 0.039 0.688 0.001
GW 539 1 -0.708 0.054 0.688 -0.708 0.044 0.688 0.001
GW 540 1 -0.708 0.054 0.688 -0.708 0.054 0.809 0.001
GW 541 1 -0.708 0.044 0.688 -0.708 0.044 0.809 0.001
GW 542 1 -0.708 0.194 0.688 -0.708 0.184 0.688 0.001
GW 543 1 -0.708 0.184 0.688 -0.716 0.179 0.688 0.001
GW 544 1 -0.708 0.184 0.688 -0.708 0.184 0.809 0.001
GW 545 1 -0.708 0.194 0.688 -0.708 0.194 0.809 0.001
GW 546 1 -0.708 0.044 0.809 -0.716 0.039 0.809 0.001
GW 547 1 -0.708 0.054 0.809 -0.708 0.044 0.809 0.001
GW 548 1 -0.708 0.194 0.809 -0.708 0.184 0.809 0.001
GW 549 1 -0.708 0.184 0.809 -0.716 0.179 0.809 0.001
GW 550 1 -0.716 0.039 0.559 -0.716 0.039 0.688 0.001
GW 551 1 -0.716 0.039 0.559 -0.725 0.044 0.559 0.001
GW 552 1 -0.716 0.059 0.559 -0.716 0.059 0.688 0.001
GW 553 1 -0.716 0.059 0.559 -0.708 0.054 0.559 0.001
GW 554 1 -0.716 0.199 0.559 -0.708 0.194 0.559 0.001
GW 555 1 -0.716 0.179 0.559 -0.716 0.179 0.688 0.001
GW 556 1 -0.716 0.179 0.559 -0.725 0.184 0.559 0.001
GW 557 1 -0.716 0.199 0.559 -0.716 0.199 0.688 0.001
GW 558 1 -0.716 0.059 0.688 -0.708 0.054 0.688 0.001
GW 559 1 -0.716 0.039 0.688 -0.716 0.039 0.809 0.001
GW 560 1 -0.716 0.039 0.688 -0.725 0.044 0.688 0.001
GW 561 1 -0.716 0.059 0.688 -0.716 0.059 0.809 0.001