GW   1    8  3.840000  0.840000  0.920000  3.840000  0.840000  1.150000  0.001000
GW   2    8  3.840000  0.840000  0.690000  3.840000  0.840000  0.920000  0.001000
GS   0    0         1
GE   0   -1         0
GN  -1
FR   0    1    0    0 100.00000  10.00000
EX   0    1    1    0   1.00000   0.00000
RP   0   46   90 1000         0   0.00000   4.00000   4.00000   0.00000
EN